3D_136033680.mol
  ChemDraw11222411113D

101102  0  0  1  0  0  0  0  0999 V2000
   -1.6888   -2.8717   -0.2086 P   0  0  0  0  0  0  0  0  0  0  0  0
   -2.5901   -8.2939   -0.8511 O   0  0  0  0  0  0  0  0  0  0  0  0
    1.2228   -8.8835   -0.8180 O   0  0  0  0  0  0  0  0  0  0  0  0
   -0.1971   -7.0194    2.0296 O   0  0  0  0  0  0  0  0  0  0  0  0
   -2.0692   -4.5456    0.6578 O   0  0  0  0  0  0  0  0  0  0  0  0
   -1.5644   -1.6007    1.2294 O   0  0  0  0  0  0  0  0  0  0  0  0
    0.0018   -2.9329   -1.1234 O   0  0  0  0  0  0  0  0  0  0  0  0
   -2.9935   -2.4502   -1.3240 O   0  0  0  0  0  0  0  0  0  0  0  0
   -5.0804  -14.8597   -0.0038 O   0  0  0  0  0  0  0  0  0  0  0  0
   -2.0005  -10.8451   -0.4866 N   0  0  0  0  0  0  0  0  0  0  0  0
   -2.1915  -13.3914   -0.3959 N   0  0  0  0  0  0  0  0  0  0  0  0
   -4.6046  -10.3323    0.1908 N   0  0  0  0  0  0  0  0  0  0  0  0
   -6.0967  -12.5193    0.3833 N   0  0  0  0  0  0  0  0  0  0  0  0
   -0.1024   -8.8808    0.0597 C   0  0  0  0  0  0  0  0  0  0  0  0
   -0.4686   -7.2746    0.4835 C   0  0  0  0  0  0  0  0  0  0  0  0
   -1.4194   -9.3702   -0.9031 C   0  0  0  0  0  0  0  0  0  0  0  0
   -2.1311   -7.1342    0.1365 C   0  0  0  0  0  0  0  0  0  0  0  0
   -2.4573   -5.5817   -0.4831 C   0  0  0  0  0  0  0  0  0  0  0  0
   -3.4172  -11.2307   -0.1018 C   0  0  0  0  0  0  0  0  0  0  0  0
   -1.2929  -12.1838   -0.6129 C   0  0  0  0  0  0  0  0  0  0  0  0
   -3.5419  -12.7679   -0.0959 C   0  0  0  0  0  0  0  0  0  0  0  0
   -4.9201  -13.4377    0.1062 C   0  0  0  0  0  0  0  0  0  0  0  0
   -5.9270  -11.0145    0.4964 C   0  0  0  0  0  0  0  0  0  0  0  0
    0.0362   -9.5819    1.0772 H   0  0  0  0  0  0  0  0  0  0  0  0
    0.1774   -6.4715   -0.2180 H   0  0  0  0  0  0  0  0  0  0  0  0
   -1.0077   -9.4238   -2.0762 H   0  0  0  0  0  0  0  0  0  0  0  0
   -2.7501   -7.2446    1.2110 H   0  0  0  0  0  0  0  0  0  0  0  0
   -3.6663   -5.4798   -0.7497 H   0  0  0  0  0  0  0  0  0  0  0  0
   -1.7831   -5.3725   -1.5050 H   0  0  0  0  0  0  0  0  0  0  0  0
    1.7659   -9.8386   -0.5323 H   0  0  0  0  0  0  0  0  0  0  0  0
    0.8696   -6.6331    2.0762 H   0  0  0  0  0  0  0  0  0  0  0  0
   -0.1198  -12.2884   -0.9094 H   0  0  0  0  0  0  0  0  0  0  0  0
   -6.8892  -10.3538    0.8187 H   0  0  0  0  0  0  0  0  0  0  0  0
   -7.1731  -12.9934    0.4726 H   0  0  0  0  0  0  0  0  0  0  0  0
   -1.3485   -0.6203    0.7013 H   0  0  0  0  0  0  0  0  0  0  0  0
    0.1946   -1.8474   -1.3924 H   0  0  0  0  0  0  0  0  0  0  0  0
    0.0471    4.0334   -0.5636 P   0  0  0  0  0  0  0  0  0  0  0  0
   -3.4707    7.5015   -0.7955 O   0  0  0  0  0  0  0  0  0  0  0  0
   -5.5218    4.6565   -0.4880 O   0  0  0  0  0  0  0  0  0  0  0  0
   -6.2653    7.9364    1.4989 O   0  0  0  0  0  0  0  0  0  0  0  0
   -1.0802    5.5530   -0.6588 O   0  0  0  0  0  0  0  0  0  0  0  0
   -2.9687    9.0838    1.3430 O   0  0  0  0  0  0  0  0  0  0  0  0
    0.0605    3.2719    1.1706 O   0  0  0  0  0  0  0  0  0  0  0  0
    1.7967    4.6714   -0.9106 O   0  0  0  0  0  0  0  0  0  0  0  0
   -0.4627    2.8480   -1.7327 O   0  0  0  0  0  0  0  0  0  0  0  0
   -4.8123    9.6534   -0.2746 N   0  0  0  0  0  0  0  0  0  0  0  0
   -3.4080   11.5148    0.8685 N   0  0  0  0  0  0  0  0  0  0  0  0
   -3.6897   14.0392    0.1206 N   0  0  0  0  0  0  0  0  0  0  0  0
   -5.0567    5.8037    0.4688 C   0  0  0  0  0  0  0  0  0  0  0  0
   -5.9324    7.1950    0.1618 C   0  0  0  0  0  0  0  0  0  0  0  0
   -3.4761    6.2490    0.1435 C   0  0  0  0  0  0  0  0  0  0  0  0
   -4.9062    8.1247   -0.7779 C   0  0  0  0  0  0  0  0  0  0  0  0
   -2.5555    5.0394   -0.5609 C   0  0  0  0  0  0  0  0  0  0  0  0
   -5.7356   10.6765   -0.8489 C   0  0  0  0  0  0  0  0  0  0  0  0
   -3.7338   10.0673    0.6765 C   0  0  0  0  0  0  0  0  0  0  0  0
   -5.4386   12.1606   -0.6458 C   0  0  0  0  0  0  0  0  0  0  0  0
   -4.1830   12.5555    0.1301 C   0  0  0  0  0  0  0  0  0  0  0  0
   -5.1841    5.4563    1.6346 H   0  0  0  0  0  0  0  0  0  0  0  0
   -6.9652    6.9517   -0.4455 H   0  0  0  0  0  0  0  0  0  0  0  0
   -2.9543    6.5526    1.2070 H   0  0  0  0  0  0  0  0  0  0  0  0
   -5.3308    8.1323   -1.9249 H   0  0  0  0  0  0  0  0  0  0  0  0
   -2.9606    4.8086   -1.6923 H   0  0  0  0  0  0  0  0  0  0  0  0
   -2.6045    4.0217    0.1161 H   0  0  0  0  0  0  0  0  0  0  0  0
   -6.1135    3.9697    0.1666 H   0  0  0  0  0  0  0  0  0  0  0  0
   -7.3708    8.0986    1.4696 H   0  0  0  0  0  0  0  0  0  0  0  0
   -6.6834   10.3438   -1.4956 H   0  0  0  0  0  0  0  0  0  0  0  0
   -6.1290   12.9998   -1.1401 H   0  0  0  0  0  0  0  0  0  0  0  0
   -4.3744   14.8597   -0.2964 H   0  0  0  0  0  0  0  0  0  0  0  0
   -2.6279   14.2971    0.4699 H   0  0  0  0  0  0  0  0  0  0  0  0
    0.9085    2.5432    1.1528 H   0  0  0  0  0  0  0  0  0  0  0  0
    1.9635    5.4582   -0.1338 H   0  0  0  0  0  0  0  0  0  0  0  0
    5.6983    0.7559    0.3605 O   0  0  0  0  0  0  0  0  0  0  0  0
    6.8170   -1.5924    0.5589 O   0  0  0  0  0  0  0  0  0  0  0  0
    8.2672    0.3226   -0.4326 N   0  0  0  0  0  0  0  0  0  0  0  0
   15.0754   -0.2121   -0.2652 N   0  0  0  0  0  0  0  0  0  0  0  0
   10.9557    0.4901   -0.1486 C   0  0  0  0  0  0  0  0  0  0  0  0
   12.3667   -0.4371   -0.3110 C   0  0  0  0  0  0  0  0  0  0  0  0
    9.6129   -0.5406   -0.2012 C   0  0  0  0  0  0  0  0  0  0  0  0
   13.6876    0.4240    0.3120 C   0  0  0  0  0  0  0  0  0  0  0  0
    6.9024   -0.2137    0.1735 C   0  0  0  0  0  0  0  0  0  0  0  0
   10.8578    1.2993   -1.0809 H   0  0  0  0  0  0  0  0  0  0  0  0
   10.9866    1.1218    0.9165 H   0  0  0  0  0  0  0  0  0  0  0  0
   12.2173   -1.5221    0.2714 H   0  0  0  0  0  0  0  0  0  0  0  0
   12.5782   -0.6492   -1.5139 H   0  0  0  0  0  0  0  0  0  0  0  0
    9.5454   -1.1444    0.8756 H   0  0  0  0  0  0  0  0  0  0  0  0
    9.7495   -1.3680   -1.1105 H   0  0  0  0  0  0  0  0  0  0  0  0
   13.6113    1.6030   -0.0573 H   0  0  0  0  0  0  0  0  0  0  0  0
   13.6650    0.3784    1.5487 H   0  0  0  0  0  0  0  0  0  0  0  0
    8.3177    1.3167   -1.0255 H   0  0  0  0  0  0  0  0  0  0  0  0
   15.7959    0.6944   -0.4776 H   0  0  0  0  0  0  0  0  0  0  0  0
   15.5616   -0.8350    0.6072 H   0  0  0  0  0  0  0  0  0  0  0  0
    5.0392    0.6149   -0.5523 H   0  0  0  0  0  0  0  0  0  0  0  0
  -11.4511   -0.1166   -0.6294 O   0  0  0  0  0  0  0  0  0  0  0  0
  -15.2537    0.3833    0.4622 O   0  0  0  0  0  0  0  0  0  0  0  0
  -13.7044   -1.5936    0.1286 O   0  0  0  0  0  0  0  0  0  0  0  0
  -12.6137    0.7825   -0.1383 C   0  0  0  0  0  0  0  0  0  0  0  0
  -13.8830   -0.2011    0.1522 C   0  0  0  0  0  0  0  0  0  0  0  0
  -12.2827    1.3773    0.8658 H   0  0  0  0  0  0  0  0  0  0  0  0
  -12.9080    1.6042   -0.9805 H   0  0  0  0  0  0  0  0  0  0  0  0
  -10.5775    0.1885   -0.0229 H   0  0  0  0  0  0  0  0  0  0  0  0
  -15.7959    0.3805   -0.5030 H   0  0  0  0  0  0  0  0  0  0  0  0
  1  5  1  0        0
  1  6  1  0        0
  1  7  1  0        0
  1  8  2  0        0
  2 16  1  0        0
  2 17  1  0        0
  3 14  1  0        0
  3 30  1  0        0
  4 15  1  0        0
  4 31  1  0        0
  5 18  1  0        0
  6 35  1  0        0
  7 36  1  0        0
  9 22  2  0        0
 10 16  1  0        0
 10 19  1  0        0
 10 20  1  0        0
 11 20  2  0        0
 11 21  1  0        0
 12 19  1  0        0
 12 23  2  0        0
 13 22  1  0        0
 13 23  1  0        0
 13 34  1  0        0
 14 15  1  0        0
 14 16  1  0        0
 14 24  1  0        0
 15 17  1  0        0
 15 25  1  0        0
 16 26  1  0        0
 17 18  1  0        0
 17 27  1  0        0
 18 28  1  0        0
 18 29  1  0        0
 19 21  2  0        0
 20 32  1  0        0
 21 22  1  0        0
 23 33  1  0        0
 37 41  1  0        0
 37 43  1  0        0
 37 44  1  0        0
 37 45  2  0        0
 38 51  1  0        0
 38 52  1  0        0
 39 49  1  0        0
 39 64  1  0        0
 40 50  1  0        0
 40 65  1  0        0
 41 53  1  0        0
 42 55  2  0        0
 43 70  1  0        0
 44 71  1  0        0
 46 52  1  0        0
 46 54  1  0        0
 46 55  1  0        0
 47 55  1  0        0
 47 57  2  0        0
 48 57  1  0        0
 48 68  1  0        0
 48 69  1  0        0
 49 50  1  0        0
 49 51  1  0        0
 49 58  1  0        0
 50 52  1  0        0
 50 59  1  0        0
 51 53  1  0        0
 51 60  1  0        0
 52 61  1  0        0
 53 62  1  0        0
 53 63  1  0        0
 54 56  2  0        0
 54 66  1  0        0
 56 57  1  0        0
 56 67  1  0        0
 72 80  1  0        0
 72 92  1  0        0
 73 80  2  0        0
 74 78  1  0        0
 74 80  1  0        0
 74 89  1  0        0
 75 79  1  0        0
 75 90  1  0        0
 75 91  1  0        0
 76 77  1  0        0
 76 78  1  0        0
 76 81  1  0        0
 76 82  1  0        0
 77 79  1  0        0
 77 83  1  0        0
 77 84  1  0        0
 78 85  1  0        0
 78 86  1  0        0
 79 87  1  0        0
 79 88  1  0        0
 93 96  1  0        0
 93100  1  0        0
 94 97  1  0        0
 94101  1  0        0
 95 97  2  0        0
 96 97  1  0        0
 96 98  1  0        0
 96 99  1  0        0
M  END
