3D_135537060.mol
  ChemDraw11222411113D

105109  0  0  1  0  0  0  0  0999 V2000
   -4.9389    5.1091   -0.0287 P   0  0  0  0  0  0  0  0  0  0  0  0
   -6.0761   -0.1225    0.0943 O   0  0  0  0  0  0  0  0  0  0  0  0
   -2.7617   -1.3992    1.5052 O   0  0  0  0  0  0  0  0  0  0  0  0
   -2.3792    1.2315    0.6569 O   0  0  0  0  0  0  0  0  0  0  0  0
   -4.2763    3.4216   -0.6576 O   0  0  0  0  0  0  0  0  0  0  0  0
   -5.9740    6.0023   -1.3747 O   0  0  0  0  0  0  0  0  0  0  0  0
   -3.3870    6.1914    0.2894 O   0  0  0  0  0  0  0  0  0  0  0  0
   -5.9233    4.8751    1.4166 O   0  0  0  0  0  0  0  0  0  0  0  0
   -8.2243   -7.1196   -0.5842 O   0  0  0  0  0  0  0  0  0  0  0  0
   -5.7846   -2.7508   -0.2820 N   0  0  0  0  0  0  0  0  0  0  0  0
   -5.7584   -5.0604   -1.3503 N   0  0  0  0  0  0  0  0  0  0  0  0
   -8.4571   -2.6777    0.2367 N   0  0  0  0  0  0  0  0  0  0  0  0
   -9.6233   -5.0302   -0.0564 N   0  0  0  0  0  0  0  0  0  0  0  0
   -3.5938   -1.1269    0.1827 C   0  0  0  0  0  0  0  0  0  0  0  0
   -3.5318    0.5307   -0.1768 C   0  0  0  0  0  0  0  0  0  0  0  0
   -5.2421   -1.4137    0.4867 C   0  0  0  0  0  0  0  0  0  0  0  0
   -5.0586    1.0719    0.3292 C   0  0  0  0  0  0  0  0  0  0  0  0
   -5.5127    2.4335   -0.5742 C   0  0  0  0  0  0  0  0  0  0  0  0
   -7.1787   -3.3346   -0.2341 C   0  0  0  0  0  0  0  0  0  0  0  0
   -4.9884   -3.7888   -1.0443 C   0  0  0  0  0  0  0  0  0  0  0  0
   -7.1232   -4.7788   -0.7580 C   0  0  0  0  0  0  0  0  0  0  0  0
   -8.3368   -5.6945   -0.5024 C   0  0  0  0  0  0  0  0  0  0  0  0
   -9.7016   -3.5411    0.2050 C   0  0  0  0  0  0  0  0  0  0  0  0
   -3.1574   -1.8202   -0.7499 H   0  0  0  0  0  0  0  0  0  0  0  0
   -3.3991    0.7347   -1.3943 H   0  0  0  0  0  0  0  0  0  0  0  0
   -5.3897   -1.6392    1.6987 H   0  0  0  0  0  0  0  0  0  0  0  0
   -5.0083    1.3520    1.5372 H   0  0  0  0  0  0  0  0  0  0  0  0
   -6.4470    3.0171   -0.0086 H   0  0  0  0  0  0  0  0  0  0  0  0
   -5.8569    2.0437   -1.6987 H   0  0  0  0  0  0  0  0  0  0  0  0
   -2.3863   -2.4633    1.4149 H   0  0  0  0  0  0  0  0  0  0  0  0
   -1.7925    1.8203   -0.1117 H   0  0  0  0  0  0  0  0  0  0  0  0
   -3.8374   -3.6109   -1.3745 H   0  0  0  0  0  0  0  0  0  0  0  0
  -10.7682   -3.0264    0.4394 H   0  0  0  0  0  0  0  0  0  0  0  0
  -10.5980   -5.6757    0.0765 H   0  0  0  0  0  0  0  0  0  0  0  0
   -6.1189    7.0633   -1.0062 H   0  0  0  0  0  0  0  0  0  0  0  0
   -2.8147    6.1782   -0.6877 H   0  0  0  0  0  0  0  0  0  0  0  0
    8.7450  -11.8745    0.2602 P   0  0  0  0  0  0  0  0  0  0  0  0
    5.4142   -8.5113    0.4528 O   0  0  0  0  0  0  0  0  0  0  0  0
    2.6916  -11.0531    0.8010 O   0  0  0  0  0  0  0  0  0  0  0  0
    1.5192   -8.7216    0.0473 O   0  0  0  0  0  0  0  0  0  0  0  0
    7.7088  -10.2991    0.1001 O   0  0  0  0  0  0  0  0  0  0  0  0
    6.4696   -6.9089   -1.0652 O   0  0  0  0  0  0  0  0  0  0  0  0
    9.0210  -12.6370   -1.4500 O   0  0  0  0  0  0  0  0  0  0  0  0
   10.4140  -11.3110    0.9540 O   0  0  0  0  0  0  0  0  0  0  0  0
    7.8983  -12.9896    1.2943 O   0  0  0  0  0  0  0  0  0  0  0  0
    5.3884   -2.1411    0.1401 O   0  0  0  0  0  0  0  0  0  0  0  0
    4.2026   -6.3352   -0.1569 N   0  0  0  0  0  0  0  0  0  0  0  0
    5.9525   -4.4826   -0.6061 N   0  0  0  0  0  0  0  0  0  0  0  0
    3.5948  -10.3228   -0.2460 C   0  0  0  0  0  0  0  0  0  0  0  0
    2.9804   -8.7899   -0.5052 C   0  0  0  0  0  0  0  0  0  0  0  0
    5.1073  -10.0438    0.4139 C   0  0  0  0  0  0  0  0  0  0  0  0
    4.0083   -7.8322    0.4003 C   0  0  0  0  0  0  0  0  0  0  0  0
    6.3290  -10.7671   -0.4675 C   0  0  0  0  0  0  0  0  0  0  0  0
    5.5504   -5.9196   -0.6485 C   0  0  0  0  0  0  0  0  0  0  0  0
    3.1209   -5.3239    0.0244 C   0  0  0  0  0  0  0  0  0  0  0  0
    3.5035   -3.8472    0.0545 C   0  0  0  0  0  0  0  0  0  0  0  0
    4.9666   -3.4608   -0.1391 C   0  0  0  0  0  0  0  0  0  0  0  0
    3.6662  -10.9882   -1.2697 H   0  0  0  0  0  0  0  0  0  0  0  0
    3.0130   -8.5142   -1.6947 H   0  0  0  0  0  0  0  0  0  0  0  0
    5.1547  -10.4906    1.5482 H   0  0  0  0  0  0  0  0  0  0  0  0
    3.5586   -7.7901    1.5344 H   0  0  0  0  0  0  0  0  0  0  0  0
    6.2396  -10.4277   -1.6381 H   0  0  0  0  0  0  0  0  0  0  0  0
    6.2432  -11.9849   -0.4147 H   0  0  0  0  0  0  0  0  0  0  0  0
    2.8049  -12.1427    0.5839 H   0  0  0  0  0  0  0  0  0  0  0  0
    0.9622   -8.0682   -0.6668 H   0  0  0  0  0  0  0  0  0  0  0  0
    1.9875   -5.6592    0.1909 H   0  0  0  0  0  0  0  0  0  0  0  0
    7.0356   -4.1751   -0.8884 H   0  0  0  0  0  0  0  0  0  0  0  0
    2.6813   -3.0126    0.2821 H   0  0  0  0  0  0  0  0  0  0  0  0
    9.7989  -13.4212   -1.2834 H   0  0  0  0  0  0  0  0  0  0  0  0
   10.7682  -10.5681    0.1985 H   0  0  0  0  0  0  0  0  0  0  0  0
    8.7953    2.9393    0.3612 P   0  0  0  0  0  0  0  0  0  0  0  0
    5.4530    6.3023    0.2661 O   0  0  0  0  0  0  0  0  0  0  0  0
    2.8743    3.6024    0.5216 O   0  0  0  0  0  0  0  0  0  0  0  0
    1.6717    5.9498    0.2291 O   0  0  0  0  0  0  0  0  0  0  0  0
    7.6986    4.4259    0.3677 O   0  0  0  0  0  0  0  0  0  0  0  0
    6.2894    7.9131   -1.3815 O   0  0  0  0  0  0  0  0  0  0  0  0
    9.0012    2.2840   -1.3535 O   0  0  0  0  0  0  0  0  0  0  0  0
   10.4506    3.5254    0.9352 O   0  0  0  0  0  0  0  0  0  0  0  0
    8.1359    1.7442    1.3717 O   0  0  0  0  0  0  0  0  0  0  0  0
    4.1556    8.4016   -0.2530 N   0  0  0  0  0  0  0  0  0  0  0  0
    5.7081   10.2637   -0.9293 N   0  0  0  0  0  0  0  0  0  0  0  0
    5.2048   12.6585   -0.0828 N   0  0  0  0  0  0  0  0  0  0  0  0
    3.7318    4.5032   -0.3641 C   0  0  0  0  0  0  0  0  0  0  0  0
    3.0247    5.9707   -0.4779 C   0  0  0  0  0  0  0  0  0  0  0  0
    5.1650    4.8051    0.3630 C   0  0  0  0  0  0  0  0  0  0  0  0
    4.0681    6.9413    0.3223 C   0  0  0  0  0  0  0  0  0  0  0  0
    6.4068    3.9906   -0.3214 C   0  0  0  0  0  0  0  0  0  0  0  0
    3.0748    9.3434    0.0162 C   0  0  0  0  0  0  0  0  0  0  0  0
    5.3909    8.8410   -0.8928 C   0  0  0  0  0  0  0  0  0  0  0  0
    3.3788   10.7991   -0.0414 C   0  0  0  0  0  0  0  0  0  0  0  0
    4.7621   11.2293   -0.3815 C   0  0  0  0  0  0  0  0  0  0  0  0
    3.8854    4.0023   -1.4361 H   0  0  0  0  0  0  0  0  0  0  0  0
    2.8970    6.2978   -1.6181 H   0  0  0  0  0  0  0  0  0  0  0  0
    5.0927    4.5018    1.5161 H   0  0  0  0  0  0  0  0  0  0  0  0
    3.7209    6.9927    1.4650 H   0  0  0  0  0  0  0  0  0  0  0  0
    6.4608    4.2718   -1.4820 H   0  0  0  0  0  0  0  0  0  0  0  0
    6.2499    2.8118   -0.1984 H   0  0  0  0  0  0  0  0  0  0  0  0
    3.1312    2.5851    0.2254 H   0  0  0  0  0  0  0  0  0  0  0  0
    1.0256    6.5993   -0.3627 H   0  0  0  0  0  0  0  0  0  0  0  0
    2.0181    8.9670    0.3333 H   0  0  0  0  0  0  0  0  0  0  0  0
    2.5647   11.5805    0.2417 H   0  0  0  0  0  0  0  0  0  0  0  0
    4.4544   13.4212    0.2438 H   0  0  0  0  0  0  0  0  0  0  0  0
    6.2958   12.8966   -0.1374 H   0  0  0  0  0  0  0  0  0  0  0  0
    9.7774    1.5249   -1.2519 H   0  0  0  0  0  0  0  0  0  0  0  0
   10.7047    4.3028    0.2137 H   0  0  0  0  0  0  0  0  0  0  0  0
  1  5  1  0        0
  1  6  1  0        0
  1  7  1  0        0
  1  8  2  0        0
  2 16  1  0        0
  2 17  1  0        0
 14  3  1  0        0
  3 30  1  0        0
 15  4  1  0        0
  4 31  1  0        0
  5 18  1  0        0
  6 35  1  0        0
  7 36  1  0        0
  9 22  2  0        0
 16 10  1  0        0
 10 19  1  0        0
 10 20  1  0        0
 11 20  2  0        0
 11 21  1  0        0
 12 19  1  0        0
 12 23  2  0        0
 13 22  1  0        0
 13 23  1  0        0
 13 34  1  0        0
 14 15  1  0        0
 14 16  1  0        0
 14 24  1  0        0
 15 17  1  0        0
 15 25  1  0        0
 16 26  1  0        0
 17 18  1  0        0
 17 27  1  0        0
 18 28  1  0        0
 18 29  1  0        0
 19 21  2  0        0
 20 32  1  0        0
 21 22  1  0        0
 23 33  1  0        0
 37 41  1  0        0
 37 43  1  0        0
 37 44  1  0        0
 37 45  2  0        0
 38 51  1  0        0
 38 52  1  0        0
 49 39  1  0        0
 39 64  1  0        0
 50 40  1  0        0
 40 65  1  0        0
 41 53  1  0        0
 42 54  2  0        0
 43 69  1  0        0
 44 70  1  0        0
 46 57  2  0        0
 52 47  1  0        0
 47 54  1  0        0
 47 55  1  0        0
 48 54  1  0        0
 48 57  1  0        0
 48 67  1  0        0
 49 50  1  0        0
 49 51  1  0        0
 49 58  1  0        0
 50 52  1  0        0
 50 59  1  0        0
 51 53  1  0        0
 51 60  1  0        0
 52 61  1  0        0
 53 62  1  0        0
 53 63  1  0        0
 55 56  2  0        0
 55 66  1  0        0
 56 57  1  0        0
 56 68  1  0        0
 71 75  1  0        0
 71 77  1  0        0
 71 78  1  0        0
 71 79  2  0        0
 72 85  1  0        0
 72 86  1  0        0
 83 73  1  0        0
 73 98  1  0        0
 84 74  1  0        0
 74 99  1  0        0
 75 87  1  0        0
 76 89  2  0        0
 77104  1  0        0
 78105  1  0        0
 86 80  1  0        0
 80 88  1  0        0
 80 89  1  0        0
 81 89  1  0        0
 81 91  2  0        0
 82 91  1  0        0
 82102  1  0        0
 82103  1  0        0
 83 84  1  0        0
 83 85  1  0        0
 83 92  1  0        0
 84 86  1  0        0
 84 93  1  0        0
 85 87  1  0        0
 85 94  1  0        0
 86 95  1  0        0
 87 96  1  0        0
 87 97  1  0        0
 88 90  2  0        0
 88100  1  0        0
 90 91  1  0        0
 90101  1  0        0
M  END
