3D_32744.mol
  ChemDraw11222411073D

 71 74  0  0  1  0  0  0  0  0999 V2000
    7.5166    5.2729    0.0523 P   0  0  0  0  0  0  0  0  0  0  0  0
    6.4056    0.0157    0.0623 O   0  0  0  0  0  0  0  0  0  0  0  0
    9.6695   -1.3980    1.4589 O   0  0  0  0  0  0  0  0  0  0  0  0
   10.0881    1.2621    0.8145 O   0  0  0  0  0  0  0  0  0  0  0  0
    8.2460    3.5733   -0.4281 O   0  0  0  0  0  0  0  0  0  0  0  0
    6.4885    6.0207   -1.3736 O   0  0  0  0  0  0  0  0  0  0  0  0
    9.0043    6.4390    0.3288 O   0  0  0  0  0  0  0  0  0  0  0  0
    6.5237    5.1384    1.4949 O   0  0  0  0  0  0  0  0  0  0  0  0
    4.3503   -7.0783   -0.4115 O   0  0  0  0  0  0  0  0  0  0  0  0
    6.6583   -2.6083   -0.3687 N   0  0  0  0  0  0  0  0  0  0  0  0
    6.7313   -4.9711   -1.3046 N   0  0  0  0  0  0  0  0  0  0  0  0
    3.9963   -2.6140    0.1844 N   0  0  0  0  0  0  0  0  0  0  0  0
    2.9406   -5.0225    0.1417 N   0  0  0  0  0  0  0  0  0  0  0  0
    8.8613   -1.0321    0.1529 C   0  0  0  0  0  0  0  0  0  0  0  0
    8.9626    0.6349   -0.0988 C   0  0  0  0  0  0  0  0  0  0  0  0
    7.2124   -1.2948    0.4172 C   0  0  0  0  0  0  0  0  0  0  0  0
    7.4327    1.1737    0.3801 C   0  0  0  0  0  0  0  0  0  0  0  0
    7.0197    2.5799   -0.4615 C   0  0  0  0  0  0  0  0  0  0  0  0
    5.3014   -3.2458   -0.2291 C   0  0  0  0  0  0  0  0  0  0  0  0
    7.4462   -3.6527   -1.1224 C   0  0  0  0  0  0  0  0  0  0  0  0
    5.3991   -4.7174   -0.6448 C   0  0  0  0  0  0  0  0  0  0  0  0
    4.2272   -5.6592   -0.3193 C   0  0  0  0  0  0  0  0  0  0  0  0
    2.8074   -3.5297    0.3303 C   0  0  0  0  0  0  0  0  0  0  0  0
    9.2701   -1.6746   -0.8182 H   0  0  0  0  0  0  0  0  0  0  0  0
    9.1545    0.9012   -1.2910 H   0  0  0  0  0  0  0  0  0  0  0  0
    7.0755   -1.5211    1.6229 H   0  0  0  0  0  0  0  0  0  0  0  0
    7.4567    1.3997    1.5954 H   0  0  0  0  0  0  0  0  0  0  0  0
    6.0473    3.1199    0.0726 H   0  0  0  0  0  0  0  0  0  0  0  0
    6.7490    2.2621   -1.6229 H   0  0  0  0  0  0  0  0  0  0  0  0
   10.0488   -2.4463    1.2914 H   0  0  0  0  0  0  0  0  0  0  0  0
   10.7301    1.8533    0.1006 H   0  0  0  0  0  0  0  0  0  0  0  0
    8.5700   -3.4622   -1.5156 H   0  0  0  0  0  0  0  0  0  0  0  0
    3.9068   -1.4513    0.3041 H   0  0  0  0  0  0  0  0  0  0  0  0
    1.7352   -3.0615    0.6117 H   0  0  0  0  0  0  0  0  0  0  0  0
    6.2689    7.0783   -1.0498 H   0  0  0  0  0  0  0  0  0  0  0  0
    9.5976    6.3723   -0.6278 H   0  0  0  0  0  0  0  0  0  0  0  0
   -3.0300   -4.4942    0.3948 P   0  0  0  0  0  0  0  0  0  0  0  0
   -6.3108   -1.1261    0.3128 O   0  0  0  0  0  0  0  0  0  0  0  0
   -8.8895   -3.7956    0.6033 O   0  0  0  0  0  0  0  0  0  0  0  0
  -10.0801   -1.4517    0.3262 O   0  0  0  0  0  0  0  0  0  0  0  0
   -4.0820   -2.9859    0.3327 O   0  0  0  0  0  0  0  0  0  0  0  0
   -5.5131    0.4758   -1.3591 O   0  0  0  0  0  0  0  0  0  0  0  0
   -2.8160   -5.2078   -1.2869 O   0  0  0  0  0  0  0  0  0  0  0  0
   -1.3577   -3.9364    0.9215 O   0  0  0  0  0  0  0  0  0  0  0  0
   -3.7030   -5.6483    1.4318 O   0  0  0  0  0  0  0  0  0  0  0  0
   -7.6069    0.9690   -0.1937 N   0  0  0  0  0  0  0  0  0  0  0  0
   -6.0549    2.8216   -0.8965 N   0  0  0  0  0  0  0  0  0  0  0  0
   -6.5248    5.1983   -0.0120 N   0  0  0  0  0  0  0  0  0  0  0  0
   -8.0493   -2.9075   -0.3017 C   0  0  0  0  0  0  0  0  0  0  0  0
   -8.7472   -1.4422   -0.4075 C   0  0  0  0  0  0  0  0  0  0  0  0
   -6.6057   -2.6165    0.3941 C   0  0  0  0  0  0  0  0  0  0  0  0
   -7.6897   -0.4865    0.3823 C   0  0  0  0  0  0  0  0  0  0  0  0
   -5.3836   -3.4138   -0.3286 C   0  0  0  0  0  0  0  0  0  0  0  0
   -8.6691    1.9179    0.0867 C   0  0  0  0  0  0  0  0  0  0  0  0
   -6.3898    1.4076   -0.8565 C   0  0  0  0  0  0  0  0  0  0  0  0
   -8.3596    3.3670    0.0291 C   0  0  0  0  0  0  0  0  0  0  0  0
   -6.9828    3.7841   -0.3288 C   0  0  0  0  0  0  0  0  0  0  0  0
   -7.9137   -3.4058   -1.3720 H   0  0  0  0  0  0  0  0  0  0  0  0
   -8.8934   -1.1092   -1.5400 H   0  0  0  0  0  0  0  0  0  0  0  0
   -6.6512   -2.9284    1.5413 H   0  0  0  0  0  0  0  0  0  0  0  0
   -8.0229   -0.4246    1.5263 H   0  0  0  0  0  0  0  0  0  0  0  0
   -5.3620   -3.1260   -1.4836 H   0  0  0  0  0  0  0  0  0  0  0  0
   -5.5160   -4.5897   -0.2049 H   0  0  0  0  0  0  0  0  0  0  0  0
   -8.6561   -4.8092    0.2900 H   0  0  0  0  0  0  0  0  0  0  0  0
  -10.7301   -0.8052   -0.2570 H   0  0  0  0  0  0  0  0  0  0  0  0
   -9.7149    1.5488    0.4296 H   0  0  0  0  0  0  0  0  0  0  0  0
   -9.1547    4.1488    0.3461 H   0  0  0  0  0  0  0  0  0  0  0  0
   -7.2630    5.9689    0.3089 H   0  0  0  0  0  0  0  0  0  0  0  0
   -5.4385    5.4369   -0.0820 H   0  0  0  0  0  0  0  0  0  0  0  0
   -2.0703   -5.9845   -1.1411 H   0  0  0  0  0  0  0  0  0  0  0  0
   -1.0947   -3.1807    0.1863 H   0  0  0  0  0  0  0  0  0  0  0  0
  1  5  1  0        0
  1  6  1  0        0
  1  7  1  0        0
  1  8  2  0        0
  2 16  1  0        0
  2 17  1  0        0
 14  3  1  0        0
  3 30  1  0        0
 15  4  1  0        0
  4 31  1  0        0
  5 18  1  0        0
  6 35  1  0        0
  7 36  1  0        0
  9 22  2  0        0
 16 10  1  0        0
 10 19  1  0        0
 10 20  1  0        0
 11 20  2  0        0
 11 21  1  0        0
 12 19  1  0        0
 12 23  1  0        0
 12 33  1  0        0
 13 22  1  0        0
 13 23  2  0        0
 14 15  1  0        0
 14 16  1  0        0
 14 24  1  0        0
 15 17  1  0        0
 15 25  1  0        0
 16 26  1  0        0
 17 18  1  0        0
 17 27  1  0        0
 18 28  1  0        0
 18 29  1  0        0
 19 21  2  0        0
 20 32  1  0        0
 21 22  1  0        0
 23 34  1  0        0
 37 41  1  0        0
 37 43  1  0        0
 37 44  1  0        0
 37 45  2  0        0
 38 51  1  0        0
 38 52  1  0        0
 49 39  1  0        0
 39 64  1  0        0
 50 40  1  0        0
 40 65  1  0        0
 41 53  1  0        0
 42 55  2  0        0
 43 70  1  0        0
 44 71  1  0        0
 52 46  1  0        0
 46 54  1  0        0
 46 55  1  0        0
 47 55  1  0        0
 47 57  2  0        0
 48 57  1  0        0
 48 68  1  0        0
 48 69  1  0        0
 49 50  1  0        0
 49 51  1  0        0
 49 58  1  0        0
 50 52  1  0        0
 50 59  1  0        0
 51 53  1  0        0
 51 60  1  0        0
 52 61  1  0        0
 53 62  1  0        0
 53 63  1  0        0
 54 56  2  0        0
 54 66  1  0        0
 56 57  1  0        0
 56 67  1  0        0
M  END
